COM40 - SD5 - na antresoli bez kotary.fds
Generated by PyroSim 2024.2.1209
10 lut 2026, 11:27:13

&HEAD CHID='COM40 - SD5 - na antresoli bez kotary', TITLE='COM40 - SD5 - bez kotary na antresoli'/
&TIME T_END=1200.0/
&DUMP DT_RESTART=300.0, DT_SL3D=0.25/

&MESH ID='Mesh17-01-01-01', IJK=62,138,36, XB=189.8,214.6,-135.2,-80.0,-0.2,14.2/
&MESH ID='Mesh17-01-01-02', IJK=62,138,36, XB=214.6,239.4,-135.2,-80.0,-0.2,14.2/
&MESH ID='Mesh17-01-01-03', IJK=62,138,36, XB=239.4,264.2,-135.2,-80.0,-0.2,14.2/
&MESH ID='Mesh17-01-02-01', IJK=93,72,36, XB=189.8,227.0,-80.0,-51.2,-0.2,14.2/
&MESH ID='Mesh17-01-02-02', IJK=93,72,36, XB=189.8,227.0,-51.2,-22.4,-0.2,14.2/
&MESH ID='Mesh17-01-02-03', IJK=93,72,36, XB=189.8,227.0,-22.4,6.4,-0.2,14.2/
&MESH ID='Mesh17-01-02-04', IJK=93,72,36, XB=227.0,264.2,-80.0,-51.2,-0.2,14.2/
&MESH ID='Mesh17-01-02-05', IJK=93,72,36, XB=227.0,264.2,-51.2,-22.4,-0.2,14.2/
&MESH ID='Mesh17-01-02-06', IJK=93,72,36, XB=227.0,264.2,-22.4,6.4,-0.2,14.2/
&MESH ID='Mesh17-02-01-01', IJK=64,138,36, XB=264.2,289.8,-135.2,-80.0,-0.2,14.2/
&MESH ID='Mesh17-02-01-02', IJK=64,138,36, XB=289.8,315.4,-135.2,-80.0,-0.2,14.2/
&MESH ID='Mesh17-02-01-03', IJK=64,138,36, XB=315.4,341.0,-135.2,-80.0,-0.2,14.2/
&MESH ID='Mesh17-02-02-01-merged-merged-01-merged-merged-merged-01', IJK=48,72,72, XB=264.2,273.8,-80.0,-65.6,-0.2,14.2/
&MESH ID='Mesh17-02-02-01-merged-merged-01-merged-merged-merged-02', IJK=48,72,72, XB=264.2,273.8,-65.6,-51.2,-0.2,14.2/
&MESH ID='Mesh17-02-02-01-merged-merged-01-merged-merged-merged-03', IJK=48,72,72, XB=264.2,273.8,-51.2,-36.8,-0.2,14.2/
&MESH ID='Mesh17-02-02-01-merged-merged-01-merged-merged-merged-04', IJK=48,72,72, XB=264.2,273.8,-36.8,-22.4,-0.2,14.2/
&MESH ID='Mesh17-02-02-01-merged-merged-01-merged-merged-merged-05', IJK=48,72,72, XB=264.2,273.8,-22.4,-8.0,-0.2,14.2/
&MESH ID='Mesh17-02-02-01-merged-merged-01-merged-merged-merged-06', IJK=48,72,72, XB=264.2,273.8,-8.0,6.4,-0.2,14.2/
&MESH ID='Mesh17-02-02-01-merged-merged-01-merged-merged-merged-07', IJK=48,72,72, XB=273.8,283.4,-80.0,-65.6,-0.2,14.2/
&MESH ID='Mesh17-02-02-01-merged-merged-01-merged-merged-merged-08', IJK=48,72,72, XB=273.8,283.4,-65.6,-51.2,-0.2,14.2/
&MESH ID='Mesh17-02-02-01-merged-merged-01-merged-merged-merged-09', IJK=48,72,72, XB=273.8,283.4,-51.2,-36.8,-0.2,14.2/
&MESH ID='Mesh17-02-02-01-merged-merged-01-merged-merged-merged-10', IJK=48,72,72, XB=273.8,283.4,-36.8,-22.4,-0.2,14.2/
&MESH ID='Mesh17-02-02-01-merged-merged-01-merged-merged-merged-11', IJK=48,72,72, XB=273.8,283.4,-22.4,-8.0,-0.2,14.2/
&MESH ID='Mesh17-02-02-01-merged-merged-01-merged-merged-merged-12', IJK=48,72,72, XB=273.8,283.4,-8.0,6.4,-0.2,14.2/
&MESH ID='Mesh17-02-02-01-merged-merged-01-merged-merged-merged-13', IJK=48,72,72, XB=283.4,293.0,-80.0,-65.6,-0.2,14.2/
&MESH ID='Mesh17-02-02-01-merged-merged-01-merged-merged-merged-14', IJK=48,72,72, XB=283.4,293.0,-65.6,-51.2,-0.2,14.2/
&MESH ID='Mesh17-02-02-01-merged-merged-01-merged-merged-merged-15', IJK=48,72,72, XB=283.4,293.0,-51.2,-36.8,-0.2,14.2/
&MESH ID='Mesh17-02-02-01-merged-merged-01-merged-merged-merged-16', IJK=48,72,72, XB=283.4,293.0,-36.8,-22.4,-0.2,14.2/
&MESH ID='Mesh17-02-02-01-merged-merged-01-merged-merged-merged-17', IJK=48,72,72, XB=283.4,293.0,-22.4,-8.0,-0.2,14.2/
&MESH ID='Mesh17-02-02-01-merged-merged-01-merged-merged-merged-18', IJK=48,72,72, XB=283.4,293.0,-8.0,6.4,-0.2,14.2/
&MESH ID='Mesh17-02-02-01-merged-merged-01-merged-merged-merged-19', IJK=48,72,72, XB=293.0,302.6,-80.0,-65.6,-0.2,14.2/
&MESH ID='Mesh17-02-02-01-merged-merged-01-merged-merged-merged-20', IJK=48,72,72, XB=293.0,302.6,-65.6,-51.2,-0.2,14.2/
&MESH ID='Mesh17-02-02-01-merged-merged-01-merged-merged-merged-21', IJK=48,72,72, XB=293.0,302.6,-51.2,-36.8,-0.2,14.2/
&MESH ID='Mesh17-02-02-01-merged-merged-01-merged-merged-merged-22', IJK=48,72,72, XB=293.0,302.6,-36.8,-22.4,-0.2,14.2/
&MESH ID='Mesh17-02-02-01-merged-merged-01-merged-merged-merged-23', IJK=48,72,72, XB=293.0,302.6,-22.4,-8.0,-0.2,14.2/
&MESH ID='Mesh17-02-02-01-merged-merged-01-merged-merged-merged-24', IJK=48,72,72, XB=293.0,302.6,-8.0,6.4,-0.2,14.2/
&MESH ID='Mesh17-02-02-01-merged-merged-01-merged-merged-merged-25', IJK=48,72,72, XB=302.6,312.2,-80.0,-65.6,-0.2,14.2/
&MESH ID='Mesh17-02-02-01-merged-merged-01-merged-merged-merged-26', IJK=48,72,72, XB=302.6,312.2,-65.6,-51.2,-0.2,14.2/
&MESH ID='Mesh17-02-02-01-merged-merged-01-merged-merged-merged-27', IJK=48,72,72, XB=302.6,312.2,-51.2,-36.8,-0.2,14.2/
&MESH ID='Mesh17-02-02-01-merged-merged-01-merged-merged-merged-28', IJK=48,72,72, XB=302.6,312.2,-36.8,-22.4,-0.2,14.2/
&MESH ID='Mesh17-02-02-01-merged-merged-01-merged-merged-merged-29', IJK=48,72,72, XB=302.6,312.2,-22.4,-8.0,-0.2,14.2/
&MESH ID='Mesh17-02-02-01-merged-merged-01-merged-merged-merged-30', IJK=48,72,72, XB=302.6,312.2,-8.0,6.4,-0.2,14.2/
&MESH ID='Mesh17-02-02-01-merged-merged-01-merged-merged-merged-31', IJK=48,72,72, XB=312.2,321.8,-80.0,-65.6,-0.2,14.2/
&MESH ID='Mesh17-02-02-01-merged-merged-01-merged-merged-merged-32', IJK=48,72,72, XB=312.2,321.8,-65.6,-51.2,-0.2,14.2/
&MESH ID='Mesh17-02-02-01-merged-merged-01-merged-merged-merged-33', IJK=48,72,72, XB=312.2,321.8,-51.2,-36.8,-0.2,14.2/
&MESH ID='Mesh17-02-02-01-merged-merged-01-merged-merged-merged-34', IJK=48,72,72, XB=312.2,321.8,-36.8,-22.4,-0.2,14.2/
&MESH ID='Mesh17-02-02-01-merged-merged-01-merged-merged-merged-35', IJK=48,72,72, XB=312.2,321.8,-22.4,-8.0,-0.2,14.2/
&MESH ID='Mesh17-02-02-01-merged-merged-01-merged-merged-merged-36', IJK=48,72,72, XB=312.2,321.8,-8.0,6.4,-0.2,14.2/
&MESH ID='Mesh17-02-02-01-merged-merged-01-merged-merged-merged-37', IJK=48,72,72, XB=321.8,331.4,-80.0,-65.6,-0.2,14.2/
&MESH ID='Mesh17-02-02-01-merged-merged-01-merged-merged-merged-38', IJK=48,72,72, XB=321.8,331.4,-65.6,-51.2,-0.2,14.2/
&MESH ID='Mesh17-02-02-01-merged-merged-01-merged-merged-merged-39', IJK=48,72,72, XB=321.8,331.4,-51.2,-36.8,-0.2,14.2/
&MESH ID='Mesh17-02-02-01-merged-merged-01-merged-merged-merged-40', IJK=48,72,72, XB=321.8,331.4,-36.8,-22.4,-0.2,14.2/
&MESH ID='Mesh17-02-02-01-merged-merged-01-merged-merged-merged-41', IJK=48,72,72, XB=321.8,331.4,-22.4,-8.0,-0.2,14.2/
&MESH ID='Mesh17-02-02-01-merged-merged-01-merged-merged-merged-42', IJK=48,72,72, XB=321.8,331.4,-8.0,6.4,-0.2,14.2/
&MESH ID='Mesh17-02-02-01-merged-merged-01-merged-merged-merged-43', IJK=48,72,72, XB=331.4,341.0,-80.0,-65.6,-0.2,14.2/
&MESH ID='Mesh17-02-02-01-merged-merged-01-merged-merged-merged-44', IJK=48,72,72, XB=331.4,341.0,-65.6,-51.2,-0.2,14.2/
&MESH ID='Mesh17-02-02-01-merged-merged-01-merged-merged-merged-45', IJK=48,72,72, XB=331.4,341.0,-51.2,-36.8,-0.2,14.2/
&MESH ID='Mesh17-02-02-01-merged-merged-01-merged-merged-merged-46', IJK=48,72,72, XB=331.4,341.0,-36.8,-22.4,-0.2,14.2/
&MESH ID='Mesh17-02-02-01-merged-merged-01-merged-merged-merged-47', IJK=48,72,72, XB=331.4,341.0,-22.4,-8.0,-0.2,14.2/
&MESH ID='Mesh17-02-02-01-merged-merged-01-merged-merged-merged-48', IJK=48,72,72, XB=331.4,341.0,-8.0,6.4,-0.2,14.2/

&SPEC ID='SFPE WOOD_PINE_fuel', FORMULA='C1.0H1.7O0.83'/

&REAC ID='SFPE WOOD_PINE',
      FYI='SFPE Handbook, 5th Ed, Tables 36.11 and A.39 "pine"',
      FUEL='SFPE WOOD_PINE_fuel',
      SOOT_YIELD=0.015,
      HEAT_OF_COMBUSTION=1.24E+4,
      RADIATIVE_FRACTION=0.298/

&CTRL ID='invert', FUNCTION_TYPE='ALL', LATCH=.FALSE., INITIAL_STATE=.TRUE., INPUT_ID='TIMER->OUT-2'/
&DEVC ID='TIMER->OUT', QUANTITY='TIME', XYZ=189.8,-135.2,-0.2, SETPOINT=208.1, INITIAL_STATE=.TRUE./
&DEVC ID='TIMER->OUT-2', QUANTITY='TIME', XYZ=189.8,-135.2,-0.2, SETPOINT=208.1/

&MATL ID='CONCRETE',
      FYI='NBSIR 88-3752 - ATF NIST Multi-Floor Validation',
      SPECIFIC_HEAT=1.04,
      CONDUCTIVITY=1.8,
      DENSITY=2280.0/
&MATL ID='FE-CONCRETE',
      SPECIFIC_HEAT=0.84,
      CONDUCTIVITY=1.7,
      DENSITY=2500.0/
&MATL ID='BLOCKS-CONCRETE',
      SPECIFIC_HEAT=0.84,
      CONDUCTIVITY=0.3,
      DENSITY=800.0/
&MATL ID='PLASTER-BOARD',
      SPECIFIC_HEAT=1.0,
      CONDUCTIVITY=0.3,
      DENSITY=1000.0/
&MATL ID='GLASS',
      SPECIFIC_HEAT=0.84,
      CONDUCTIVITY=0.8,
      DENSITY=2500.0/
&MATL ID='STEEL',
      SPECIFIC_HEAT=0.44,
      CONDUCTIVITY=58.0,
      DENSITY=7850.0/
&MATL ID='LIME-PLASTER',
      SPECIFIC_HEAT=0.84,
      CONDUCTIVITY=0.7,
      DENSITY=1700.0/
&MATL ID='KOTARA',
      SPECIFIC_HEAT=1.5,
      CONDUCTIVITY=0.25,
      DENSITY=1300.0/

&SURF ID='CONCRETE',
      COLOR='GRAY 80',
      MATL_ID(1,1)='CONCRETE',
      MATL_MASS_FRACTION(1,1)=1.0,
      THICKNESS(1)=0.5/
&SURF ID='FE-CONCRETE',
      COLOR='GRAY 80',
      MATL_ID(1,1)='FE-CONCRETE',
      MATL_MASS_FRACTION(1,1)=1.0,
      THICKNESS(1)=0.5/
&SURF ID='BLOCKS-CONCRETE',
      COLOR='GRAY 80',
      MATL_ID(1,1)='BLOCKS-CONCRETE',
      MATL_MASS_FRACTION(1,1)=1.0,
      THICKNESS(1)=0.24/
&SURF ID='GLASS',
      RGB=153,255,255,
      TRANSPARENCY=0.470588,
      MATL_ID(1,1)='GLASS',
      MATL_MASS_FRACTION(1,1)=1.0,
      THICKNESS(1)=0.01/
&SURF ID='STEEL',
      COLOR='GRAY 60',
      MATL_ID(1,1)='STEEL',
      MATL_MASS_FRACTION(1,1)=1.0,
      THICKNESS(1)=0.4/
&SURF ID='WALL',
      RGB=204,204,204,
      TRANSPARENCY=0.490196,
      MATL_ID(1,1)='LIME-PLASTER',
      MATL_ID(2,1)='BLOCKS-CONCRETE',
      MATL_ID(3,1)='LIME-PLASTER',
      MATL_MASS_FRACTION(1,1)=1.0,
      MATL_MASS_FRACTION(2,1)=1.0,
      MATL_MASS_FRACTION(3,1)=1.0,
      THICKNESS(1:3)=0.01,0.24,0.01/
&SURF ID='CEILING',
      RGB=146,202,166,
      MATL_ID(1,1)='LIME-PLASTER',
      MATL_ID(2,1)='FE-CONCRETE',
      MATL_ID(3,1)='LIME-PLASTER',
      MATL_MASS_FRACTION(1,1)=1.0,
      MATL_MASS_FRACTION(2,1)=1.0,
      MATL_MASS_FRACTION(3,1)=1.0,
      THICKNESS(1:3)=0.01,0.24,0.01/
&SURF ID='FIRE',
      COLOR='RED',
      HRRPUA=994.06,
      RAMP_Q='FIRE_RAMP_Q',
      TMP_FRONT=300.0/
&RAMP ID='FIRE_RAMP_Q', T=0.0, F=0.0/
&RAMP ID='FIRE_RAMP_Q', T=11.0, F=0.016/
&RAMP ID='FIRE_RAMP_Q', T=22.0, F=0.062/
&RAMP ID='FIRE_RAMP_Q', T=33.0, F=0.14/
&RAMP ID='FIRE_RAMP_Q', T=44.0, F=0.249/
&RAMP ID='FIRE_RAMP_Q', T=55.0, F=0.39/
&RAMP ID='FIRE_RAMP_Q', T=66.0, F=0.561/
&RAMP ID='FIRE_RAMP_Q', T=77.0, F=0.764/
&RAMP ID='FIRE_RAMP_Q', T=88.0, F=0.998/
&RAMP ID='FIRE_RAMP_Q', T=88.1, F=1.0/

&OBST ID='Kuryna SD4 - SD5; SD6 - SD7', XB=264.2,264.6,-130.0,0.0,8.0,10.4, SURF_ID='STEEL'/ 
&OBST ID='Kuryna SD1-5 - SD6-8', XB=204.0,336.0,-78.4,-78.0,8.0,10.4, SURF_ID='STEEL'/ 
&OBST ID='Kuryna SD4 - SD5 - antresola', XB=264.2,264.6,-66.0,-26.0,3.6,5.2, SURF_ID='STEEL'/ 
&OBST ID='Ściana zewnętrzna A', XB=204.0,323.0,-0.4,0.0,0.0,10.8, SURF_ID='BLOCKS-CONCRETE'/ 
&OBST ID='Ściana zewnętrzna B', XB=335.2,335.6,-120.0,-15.0,0.0,10.8, SURF_ID='BLOCKS-CONCRETE'/ 
&OBST ID='Ściana zewnętrzna C, D, E', XB=204.0,324.0,-130.0,-129.6,0.0,10.8, SURF_ID='BLOCKS-CONCRETE'/ 
&OBST ID='Słup', XB=204.0,204.5,-0.5,0.0,0.0,10.8, SURF_ID='STEEL'/ 
&OBST ID='Słup', XB=210.0,210.5,-0.5,0.0,0.0,10.8, SURF_ID='STEEL'/ 
&OBST ID='Słup', XB=216.0,216.5,-0.5,0.0,0.0,10.8, SURF_ID='STEEL'/ 
&OBST ID='Słup', XB=221.7,222.2,-0.5,0.0,0.0,10.8, SURF_ID='STEEL'/ 
&OBST ID='Słup', XB=227.7,228.2,-0.5,0.0,0.0,10.8, SURF_ID='STEEL'/ 
&OBST ID='Słup', XB=234.0,234.5,-0.5,0.0,0.0,10.8, SURF_ID='STEEL'/ 
&OBST ID='Słup', XB=240.0,240.5,-0.5,0.0,0.0,10.8, SURF_ID='STEEL'/ 
&OBST ID='Słup', XB=246.0,246.5,-0.5,0.0,0.0,10.8, SURF_ID='STEEL'/ 
&OBST ID='Słup', XB=252.0,252.5,-0.5,0.0,0.0,10.8, SURF_ID='STEEL'/ 
&OBST ID='Słup', XB=258.0,258.5,-0.5,0.0,0.0,10.8, SURF_ID='STEEL'/ 
&OBST ID='Słup', XB=264.0,264.5,-0.5,0.0,0.0,10.8, SURF_ID='STEEL'/ 
&OBST ID='Słup', XB=269.7,270.2,-0.5,0.0,0.0,10.8, SURF_ID='STEEL'/ 
&OBST ID='Słup', XB=275.7,276.2,-0.5,0.0,0.0,10.8, SURF_ID='STEEL'/ 
&OBST ID='Słup', XB=282.0,282.5,-0.5,0.0,0.0,10.8, SURF_ID='STEEL'/ 
&OBST ID='Słup', XB=288.0,288.5,-0.5,0.0,0.0,10.8, SURF_ID='STEEL'/ 
&OBST ID='Słup', XB=294.0,294.5,-0.5,0.0,0.0,10.8, SURF_ID='STEEL'/ 
&OBST ID='Słup', XB=300.0,300.5,-0.5,0.0,0.0,10.8, SURF_ID='STEEL'/ 
&OBST ID='Słup', XB=306.0,306.5,-0.5,0.0,0.0,10.8, SURF_ID='STEEL'/ 
&OBST ID='Słup', XB=312.0,312.5,-0.5,0.0,0.0,10.8, SURF_ID='STEEL'/ 
&OBST ID='Słup', XB=318.0,318.5,-0.5,0.0,0.0,10.8, SURF_ID='STEEL'/ 
&OBST ID='Słup', XB=322.5,323.0,-0.5,0.0,0.0,10.8, SURF_ID='STEEL'/ 
&OBST ID='Słup', XB=322.5,323.0,-7.9,-7.4,0.0,10.8, SURF_ID='STEEL'/ 
&OBST ID='Słup', XB=335.4,335.9,-15.5,-15.0,0.0,10.8, SURF_ID='STEEL'/ 
&OBST ID='Słup', XB=335.4,335.9,-21.5,-21.0,0.0,10.8, SURF_ID='STEEL'/ 
&OBST ID='Słup', XB=335.4,335.9,-27.5,-27.0,0.0,10.8, SURF_ID='STEEL'/ 
&OBST ID='Słup', XB=335.4,335.9,-33.6,-33.1,0.0,10.8, SURF_ID='STEEL'/ 
&OBST ID='Słup', XB=335.4,335.9,-39.6,-39.1,0.0,10.8, SURF_ID='STEEL'/ 
&OBST ID='Słup', XB=335.4,335.9,-45.5,-45.0,0.0,10.8, SURF_ID='STEEL'/ 
&OBST ID='Słup', XB=335.4,335.9,-51.5,-51.0,0.0,10.8, SURF_ID='STEEL'/ 
&OBST ID='Słup', XB=335.4,335.9,-57.5,-57.0,0.0,10.8, SURF_ID='STEEL'/ 
&OBST ID='Słup', XB=335.4,335.9,-63.5,-63.0,0.0,10.8, SURF_ID='STEEL'/ 
&OBST ID='Słup', XB=335.4,335.9,-69.5,-69.0,0.0,10.8, SURF_ID='STEEL'/ 
&OBST ID='Słup', XB=335.4,335.9,-75.5,-75.0,0.0,10.8, SURF_ID='STEEL'/ 
&OBST ID='Słup', XB=335.4,335.9,-80.5,-80.0,0.0,10.8, SURF_ID='STEEL'/ 
&OBST ID='Słup', XB=335.4,335.9,-85.6,-85.1,0.0,10.8, SURF_ID='STEEL'/ 
&OBST ID='Słup', XB=335.4,335.9,-91.6,-91.1,0.0,10.8, SURF_ID='STEEL'/ 
&OBST ID='Słup', XB=335.4,335.9,-99.5,-99.0,0.0,10.8, SURF_ID='STEEL'/ 
&OBST ID='Słup', XB=335.4,335.9,-105.5,-105.0,0.0,10.8, SURF_ID='STEEL'/ 
&OBST ID='Słup', XB=335.4,335.9,-111.5,-111.0,0.0,10.8, SURF_ID='STEEL'/ 
&OBST ID='Słup', XB=335.4,335.9,-117.5,-117.0,0.0,10.8, SURF_ID='STEEL'/ 
&OBST ID='Słup', XB=323.5,324.0,-129.9,-129.4,0.0,10.8, SURF_ID='STEEL'/ 
&OBST ID='Słup', XB=317.5,318.0,-129.9,-129.4,0.0,10.8, SURF_ID='STEEL'/ 
&OBST ID='Słup', XB=311.5,312.0,-129.9,-129.4,0.0,10.8, SURF_ID='STEEL'/ 
&OBST ID='Słup', XB=306.8,307.3,-129.9,-129.4,0.0,10.8, SURF_ID='STEEL'/ 
&OBST ID='Słup', XB=300.8,301.3,-129.9,-129.4,0.0,10.8, SURF_ID='STEEL'/ 
&OBST ID='Słup', XB=293.5,294.0,-129.9,-129.4,0.0,10.8, SURF_ID='STEEL'/ 
&OBST ID='Słup', XB=287.5,288.0,-129.9,-129.4,0.0,10.8, SURF_ID='STEEL'/ 
&OBST ID='Słup', XB=281.5,282.0,-129.9,-129.4,0.0,10.8, SURF_ID='STEEL'/ 
&OBST ID='Słup', XB=275.5,276.0,-129.9,-129.4,0.0,10.8, SURF_ID='STEEL'/ 
&OBST ID='Słup', XB=269.5,270.0,-129.9,-129.4,0.0,10.8, SURF_ID='STEEL'/ 
&OBST ID='Słup', XB=263.5,264.0,-129.9,-129.4,0.0,10.8, SURF_ID='STEEL'/ 
&OBST ID='Słup', XB=257.5,258.0,-129.9,-129.4,0.0,10.8, SURF_ID='STEEL'/ 
&OBST ID='Słup', XB=251.5,252.0,-129.9,-129.4,0.0,10.8, SURF_ID='STEEL'/ 
&OBST ID='Słup', XB=246.8,247.3,-129.9,-129.4,0.0,10.8, SURF_ID='STEEL'/ 
&OBST ID='Słup', XB=240.8,241.3,-129.9,-129.4,0.0,10.8, SURF_ID='STEEL'/ 
&OBST ID='Słup', XB=233.5,234.0,-129.9,-129.4,0.0,10.8, SURF_ID='STEEL'/ 
&OBST ID='Słup', XB=227.5,228.0,-129.9,-129.4,0.0,10.8, SURF_ID='STEEL'/ 
&OBST ID='Słup', XB=221.5,222.0,-129.9,-129.4,0.0,10.8, SURF_ID='STEEL'/ 
&OBST ID='Słup', XB=215.5,216.0,-129.9,-129.4,0.0,10.8, SURF_ID='STEEL'/ 
&OBST ID='Słup', XB=210.8,211.3,-129.9,-129.4,0.0,10.8, SURF_ID='STEEL'/ 
&OBST ID='Słup', XB=204.8,205.3,-129.9,-129.4,0.0,10.8, SURF_ID='STEEL'/ 
&OBST ID='Słup', XB=204.0,204.5,-26.4,-26.0,0.0,10.8, SURF_ID='STEEL'/ 
&OBST ID='Słup', XB=216.0,216.5,-26.4,-26.0,0.0,10.8, SURF_ID='STEEL'/ 
&OBST ID='Słup', XB=228.0,228.5,-26.4,-26.0,0.0,10.8, SURF_ID='STEEL'/ 
&OBST ID='Słup', XB=240.0,240.5,-26.4,-26.0,0.0,10.8, SURF_ID='STEEL'/ 
&OBST ID='Słup', XB=252.0,252.5,-26.4,-26.0,0.0,10.8, SURF_ID='STEEL'/ 
&OBST ID='Słup', XB=264.0,264.5,-26.4,-26.0,0.0,10.8, SURF_ID='STEEL'/ 
&OBST ID='Słup', XB=276.0,276.5,-26.4,-26.0,0.0,10.8, SURF_ID='STEEL'/ 
&OBST ID='Słup', XB=288.0,288.5,-26.4,-26.0,0.0,10.8, SURF_ID='STEEL'/ 
&OBST ID='Słup', XB=300.0,300.5,-26.4,-26.0,0.0,10.8, SURF_ID='STEEL'/ 
&OBST ID='Słup', XB=312.0,312.5,-26.4,-26.0,0.0,10.8, SURF_ID='STEEL'/ 
&OBST ID='Słup', XB=324.0,324.5,-26.4,-26.0,0.0,10.8, SURF_ID='STEEL'/ 
&OBST ID='Słup', XB=204.0,204.5,-35.5,-35.0,0.0,5.6, SURF_ID='STEEL'/ 
&OBST ID='Słup', XB=216.0,216.5,-35.5,-35.0,0.0,5.6, SURF_ID='STEEL'/ 
&OBST ID='Słup', XB=228.0,228.5,-35.5,-35.0,0.0,5.6, SURF_ID='STEEL'/ 
&OBST ID='Słup', XB=240.0,240.5,-35.5,-35.0,0.0,5.6, SURF_ID='STEEL'/ 
&OBST ID='Słup', XB=252.0,252.5,-35.5,-35.0,0.0,5.6, SURF_ID='STEEL'/ 
&OBST ID='Słup', XB=264.0,264.5,-35.5,-35.0,0.0,5.6, SURF_ID='STEEL'/ 
&OBST ID='Słup', XB=276.0,276.5,-35.5,-35.0,0.0,5.6, SURF_ID='STEEL'/ 
&OBST ID='Słup', XB=288.0,288.5,-35.5,-35.0,0.0,5.6, SURF_ID='STEEL'/ 
&OBST ID='Słup', XB=300.0,300.5,-35.5,-35.0,0.0,5.6, SURF_ID='STEEL'/ 
&OBST ID='Słup', XB=312.0,312.5,-35.5,-35.0,0.0,5.6, SURF_ID='STEEL'/ 
&OBST ID='Słup', XB=324.0,324.5,-35.5,-35.0,0.0,5.6, SURF_ID='STEEL'/ 
&OBST ID='Słup', XB=204.0,204.5,-44.0,-43.5,0.0,5.6, SURF_ID='STEEL'/ 
&OBST ID='Słup', XB=216.0,216.5,-44.0,-43.5,0.0,5.6, SURF_ID='STEEL'/ 
&OBST ID='Słup', XB=228.0,228.5,-44.0,-43.5,0.0,5.6, SURF_ID='STEEL'/ 
&OBST ID='Słup', XB=240.0,240.5,-44.0,-43.5,0.0,5.6, SURF_ID='STEEL'/ 
&OBST ID='Słup', XB=252.0,252.5,-44.0,-43.5,0.0,5.6, SURF_ID='STEEL'/ 
&OBST ID='Słup', XB=264.0,264.5,-44.0,-43.5,0.0,5.6, SURF_ID='STEEL'/ 
&OBST ID='Słup', XB=276.0,276.5,-44.0,-43.5,0.0,5.6, SURF_ID='STEEL'/ 
&OBST ID='Słup', XB=288.0,288.5,-44.0,-43.5,0.0,5.6, SURF_ID='STEEL'/ 
&OBST ID='Słup', XB=300.0,300.5,-44.0,-43.5,0.0,5.6, SURF_ID='STEEL'/ 
&OBST ID='Słup', XB=312.0,312.5,-44.0,-43.5,0.0,5.6, SURF_ID='STEEL'/ 
&OBST ID='Słup', XB=324.0,324.5,-44.0,-43.5,0.0,5.6, SURF_ID='STEEL'/ 
&OBST ID='Słup', XB=204.0,204.5,-52.4,-52.0,0.0,10.8, SURF_ID='STEEL'/ 
&OBST ID='Słup', XB=216.0,216.5,-52.4,-52.0,0.0,10.8, SURF_ID='STEEL'/ 
&OBST ID='Słup', XB=228.0,228.5,-52.4,-52.0,0.0,10.8, SURF_ID='STEEL'/ 
&OBST ID='Słup', XB=240.0,240.5,-52.4,-52.0,0.0,10.8, SURF_ID='STEEL'/ 
&OBST ID='Słup', XB=252.0,252.5,-52.4,-52.0,0.0,10.8, SURF_ID='STEEL'/ 
&OBST ID='Słup', XB=264.0,264.5,-52.4,-52.0,0.0,10.8, SURF_ID='STEEL'/ 
&OBST ID='Słup', XB=276.0,276.5,-52.4,-52.0,0.0,10.8, SURF_ID='STEEL'/ 
&OBST ID='Słup', XB=288.0,288.5,-52.4,-52.0,0.0,10.8, SURF_ID='STEEL'/ 
&OBST ID='Słup', XB=300.0,300.5,-52.4,-52.0,0.0,10.8, SURF_ID='STEEL'/ 
&OBST ID='Słup', XB=312.0,312.5,-52.4,-52.0,0.0,10.8, SURF_ID='STEEL'/ 
&OBST ID='Słup', XB=324.0,324.5,-52.4,-52.0,0.0,10.8, SURF_ID='STEEL'/ 
&OBST ID='Słup', XB=204.0,204.5,-59.0,-58.5,0.0,5.6, SURF_ID='STEEL'/ 
&OBST ID='Słup', XB=216.0,216.5,-59.0,-58.5,0.0,5.6, SURF_ID='STEEL'/ 
&OBST ID='Słup', XB=228.0,228.5,-59.0,-58.5,0.0,5.6, SURF_ID='STEEL'/ 
&OBST ID='Słup', XB=240.0,240.5,-59.0,-58.5,0.0,5.6, SURF_ID='STEEL'/ 
&OBST ID='Słup', XB=252.0,252.5,-59.0,-58.5,0.0,5.6, SURF_ID='STEEL'/ 
&OBST ID='Słup', XB=264.0,264.5,-59.0,-58.5,0.0,5.6, SURF_ID='STEEL'/ 
&OBST ID='Słup', XB=276.0,276.5,-59.0,-58.5,0.0,5.6, SURF_ID='STEEL'/ 
&OBST ID='Słup', XB=288.0,288.5,-59.0,-58.5,0.0,5.6, SURF_ID='STEEL'/ 
&OBST ID='Słup', XB=300.0,300.5,-59.0,-58.5,0.0,5.6, SURF_ID='STEEL'/ 
&OBST ID='Słup', XB=312.0,312.5,-59.0,-58.5,0.0,5.6, SURF_ID='STEEL'/ 
&OBST ID='Słup', XB=324.0,324.5,-59.0,-58.5,0.0,5.6, SURF_ID='STEEL'/ 
&OBST ID='Słup', XB=204.0,204.5,-65.5,-65.0,0.0,5.6, SURF_ID='STEEL'/ 
&OBST ID='Słup', XB=216.0,216.5,-65.5,-65.0,0.0,5.6, SURF_ID='STEEL'/ 
&OBST ID='Słup', XB=228.0,228.5,-65.5,-65.0,0.0,5.6, SURF_ID='STEEL'/ 
&OBST ID='Słup', XB=240.0,240.5,-65.5,-65.0,0.0,5.6, SURF_ID='STEEL'/ 
&OBST ID='Słup', XB=252.0,252.5,-65.5,-65.0,0.0,5.6, SURF_ID='STEEL'/ 
&OBST ID='Słup', XB=264.0,264.5,-65.5,-65.0,0.0,5.6, SURF_ID='STEEL'/ 
&OBST ID='Słup', XB=276.0,276.5,-65.5,-65.0,0.0,5.6, SURF_ID='STEEL'/ 
&OBST ID='Słup', XB=288.0,288.5,-65.5,-65.0,0.0,5.6, SURF_ID='STEEL'/ 
&OBST ID='Słup', XB=300.0,300.5,-65.5,-65.0,0.0,5.6, SURF_ID='STEEL'/ 
&OBST ID='Słup', XB=312.0,312.5,-65.5,-65.0,0.0,5.6, SURF_ID='STEEL'/ 
&OBST ID='Słup', XB=324.0,324.5,-65.5,-65.0,0.0,5.6, SURF_ID='STEEL'/ 
&OBST ID='Słup', XB=204.0,204.5,-78.5,-78.0,0.0,10.8, SURF_ID='STEEL'/ 
&OBST ID='Słup', XB=216.0,216.5,-78.5,-78.0,0.0,10.8, SURF_ID='STEEL'/ 
&OBST ID='Słup', XB=228.0,228.5,-78.5,-78.0,0.0,10.8, SURF_ID='STEEL'/ 
&OBST ID='Słup', XB=240.0,240.5,-78.5,-78.0,0.0,10.8, SURF_ID='STEEL'/ 
&OBST ID='Słup', XB=252.0,252.5,-78.5,-78.0,0.0,10.8, SURF_ID='STEEL'/ 
&OBST ID='Słup', XB=264.0,264.5,-78.5,-78.0,0.0,10.8, SURF_ID='STEEL'/ 
&OBST ID='Słup', XB=276.0,276.5,-78.5,-78.0,0.0,10.8, SURF_ID='STEEL'/ 
&OBST ID='Słup', XB=288.0,288.5,-78.5,-78.0,0.0,10.8, SURF_ID='STEEL'/ 
&OBST ID='Słup', XB=300.0,300.5,-78.5,-78.0,0.0,10.8, SURF_ID='STEEL'/ 
&OBST ID='Słup', XB=312.0,312.5,-78.5,-78.0,0.0,10.8, SURF_ID='STEEL'/ 
&OBST ID='Słup', XB=324.0,324.5,-78.5,-78.0,0.0,10.8, SURF_ID='STEEL'/ 
&OBST ID='Słup', XB=204.0,204.5,-104.5,-104.0,0.0,10.8, SURF_ID='STEEL'/ 
&OBST ID='Słup', XB=216.0,216.5,-104.5,-104.0,0.0,10.8, SURF_ID='STEEL'/ 
&OBST ID='Słup', XB=228.0,228.5,-104.5,-104.0,0.0,10.8, SURF_ID='STEEL'/ 
&OBST ID='Słup', XB=240.0,240.5,-104.5,-104.0,0.0,10.8, SURF_ID='STEEL'/ 
&OBST ID='Słup', XB=252.0,252.5,-104.5,-104.0,0.0,10.8, SURF_ID='STEEL'/ 
&OBST ID='Słup', XB=264.0,264.5,-104.5,-104.0,0.0,10.8, SURF_ID='STEEL'/ 
&OBST ID='Słup', XB=276.0,276.5,-104.5,-104.0,0.0,10.8, SURF_ID='STEEL'/ 
&OBST ID='Słup', XB=288.0,288.5,-104.5,-104.0,0.0,10.8, SURF_ID='STEEL'/ 
&OBST ID='Słup', XB=300.0,300.5,-104.5,-104.0,0.0,10.8, SURF_ID='STEEL'/ 
&OBST ID='Słup', XB=312.0,312.5,-104.5,-104.0,0.0,10.8, SURF_ID='STEEL'/ 
&OBST ID='Słup', XB=324.0,324.5,-104.5,-104.0,0.0,10.8, SURF_ID='STEEL'/ 
&OBST ID='Ściana zewnętrzna B', XB=204.0,204.4,-130.0,0.0,0.0,10.8, SURF_ID='BLOCKS-CONCRETE'/ 
&OBST ID='Antresola', XB=204.2,227.0,-66.0,-51.2,5.0,5.4, COLOR='GRAY 40', SURF_ID='FE-CONCRETE'/ 
&OBST ID='Antresola', XB=204.2,227.0,-51.2,-26.0,5.0,5.4, COLOR='GRAY 40', SURF_ID='FE-CONCRETE'/ 
&OBST ID='Antresola', XB=227.0,264.2,-66.0,-51.2,5.0,5.4, COLOR='GRAY 40', SURF_ID='FE-CONCRETE'/ 
&OBST ID='Antresola', XB=227.0,264.2,-51.2,-26.0,5.0,5.4, COLOR='GRAY 40', SURF_ID='FE-CONCRETE'/ 
&OBST ID='Antresola', XB=264.2,273.8,-66.0,-65.6,5.2,5.6, COLOR='GRAY 40', SURF_ID='FE-CONCRETE'/ 
&OBST ID='Antresola', XB=264.2,273.8,-65.6,-51.2,5.2,5.6, COLOR='GRAY 40', SURF_ID='FE-CONCRETE'/ 
&OBST ID='Antresola', XB=264.2,273.8,-51.2,-36.8,5.2,5.6, COLOR='GRAY 40', SURF_ID='FE-CONCRETE'/ 
&OBST ID='Antresola', XB=264.2,273.8,-36.8,-26.0,5.2,5.6, COLOR='GRAY 40', SURF_ID='FE-CONCRETE'/ 
&OBST ID='Antresola', XB=273.8,283.4,-66.0,-65.6,5.2,5.6, COLOR='GRAY 40', SURF_ID='FE-CONCRETE'/ 
&OBST ID='Antresola', XB=273.8,283.4,-65.6,-51.2,5.2,5.6, COLOR='GRAY 40', SURF_ID='FE-CONCRETE'/ 
&OBST ID='Antresola', XB=273.8,283.4,-51.2,-36.8,5.2,5.6, COLOR='GRAY 40', SURF_ID='FE-CONCRETE'/ 
&OBST ID='Antresola', XB=273.8,283.4,-36.8,-26.0,5.2,5.6, COLOR='GRAY 40', SURF_ID='FE-CONCRETE'/ 
&OBST ID='Antresola', XB=283.4,293.0,-66.0,-65.6,5.2,5.6, COLOR='GRAY 40', SURF_ID='FE-CONCRETE'/ 
&OBST ID='Antresola', XB=283.4,293.0,-65.6,-51.2,5.2,5.6, COLOR='GRAY 40', SURF_ID='FE-CONCRETE'/ 
&OBST ID='Antresola', XB=283.4,293.0,-51.2,-36.8,5.2,5.6, COLOR='GRAY 40', SURF_ID='FE-CONCRETE'/ 
&OBST ID='Antresola', XB=283.4,293.0,-36.8,-26.0,5.2,5.6, COLOR='GRAY 40', SURF_ID='FE-CONCRETE'/ 
&OBST ID='Antresola', XB=293.0,302.6,-66.0,-65.6,5.2,5.6, COLOR='GRAY 40', SURF_ID='FE-CONCRETE'/ 
&OBST ID='Antresola', XB=293.0,302.6,-65.6,-51.2,5.2,5.6, COLOR='GRAY 40', SURF_ID='FE-CONCRETE'/ 
&OBST ID='Antresola', XB=293.0,302.6,-51.2,-36.8,5.2,5.6, COLOR='GRAY 40', SURF_ID='FE-CONCRETE'/ 
&OBST ID='Antresola', XB=293.0,302.6,-36.8,-26.0,5.2,5.6, COLOR='GRAY 40', SURF_ID='FE-CONCRETE'/ 
&OBST ID='Antresola', XB=302.6,312.2,-66.0,-65.6,5.2,5.6, COLOR='GRAY 40', SURF_ID='FE-CONCRETE'/ 
&OBST ID='Antresola', XB=302.6,312.2,-65.6,-51.2,5.2,5.6, COLOR='GRAY 40', SURF_ID='FE-CONCRETE'/ 
&OBST ID='Antresola', XB=302.6,312.2,-51.2,-36.8,5.2,5.6, COLOR='GRAY 40', SURF_ID='FE-CONCRETE'/ 
&OBST ID='Antresola', XB=302.6,312.2,-36.8,-26.0,5.2,5.6, COLOR='GRAY 40', SURF_ID='FE-CONCRETE'/ 
&OBST ID='Antresola', XB=312.2,321.8,-66.0,-65.6,5.2,5.6, COLOR='GRAY 40', SURF_ID='FE-CONCRETE'/ 
&OBST ID='Antresola', XB=312.2,321.8,-65.6,-51.2,5.2,5.6, COLOR='GRAY 40', SURF_ID='FE-CONCRETE'/ 
&OBST ID='Antresola', XB=312.2,321.8,-51.2,-36.8,5.2,5.6, COLOR='GRAY 40', SURF_ID='FE-CONCRETE'/ 
&OBST ID='Antresola', XB=312.2,321.8,-36.8,-26.0,5.2,5.6, COLOR='GRAY 40', SURF_ID='FE-CONCRETE'/ 
&OBST ID='Antresola', XB=321.8,325.0,-66.0,-65.6,5.2,5.6, COLOR='GRAY 40', SURF_ID='FE-CONCRETE'/ 
&OBST ID='Antresola', XB=321.8,325.0,-65.6,-51.2,5.2,5.6, COLOR='GRAY 40', SURF_ID='FE-CONCRETE'/ 
&OBST ID='Antresola', XB=321.8,325.0,-51.2,-36.8,5.2,5.6, COLOR='GRAY 40', SURF_ID='FE-CONCRETE'/ 
&OBST ID='Antresola', XB=321.8,325.0,-36.8,-26.0,5.2,5.6, COLOR='GRAY 40', SURF_ID='FE-CONCRETE'/ 
&OBST ID='Podłoga', XB=199.0,214.6,-123.2,-114.8,-0.2,-0.2, SURF_ID='CONCRETE'/ 
&OBST ID='Podłoga', XB=199.0,214.6,-97.2,-88.8,-0.2,-0.2, SURF_ID='CONCRETE'/ 
&OBST ID='Podłoga', XB=203.8,214.6,-130.0,-123.2,-0.2,-0.2, SURF_ID='CONCRETE'/ 
&OBST ID='Podłoga', XB=203.8,214.6,-114.8,-97.2,-0.2,-0.2, SURF_ID='CONCRETE'/ 
&OBST ID='Podłoga', XB=203.8,214.6,-88.8,-80.0,-0.2,-0.2, SURF_ID='CONCRETE'/ 
&OBST ID='Podłoga', XB=210.6,214.6,-135.2,-130.0,-0.2,-0.2, SURF_ID='CONCRETE'/ 
&OBST ID='Podłoga', XB=214.6,219.0,-135.2,-130.0,-0.2,-0.2, SURF_ID='CONCRETE'/ 
&OBST ID='Podłoga', XB=214.6,239.4,-130.0,-80.0,-0.2,-0.2, SURF_ID='CONCRETE'/ 
&OBST ID='Podłoga', XB=236.6,239.4,-135.2,-130.0,-0.2,-0.2, SURF_ID='CONCRETE'/ 
&OBST ID='Podłoga', XB=239.4,245.0,-135.2,-130.0,-0.2,-0.2, SURF_ID='CONCRETE'/ 
&OBST ID='Podłoga', XB=239.4,264.2,-130.0,-80.0,-0.2,-0.2, SURF_ID='CONCRETE'/ 
&OBST ID='Podłoga', XB=254.6,263.0,-135.2,-130.0,-0.2,-0.2, SURF_ID='CONCRETE'/ 
&OBST ID='Podłoga', XB=199.0,227.0,-77.2,-68.8,-0.2,-0.2, SURF_ID='CONCRETE'/ 
&OBST ID='Podłoga', XB=203.8,227.0,-80.0,-77.2,-0.2,-0.2, SURF_ID='CONCRETE'/ 
&OBST ID='Podłoga', XB=203.8,227.0,-68.8,-51.2,-0.2,-0.2, SURF_ID='CONCRETE'/ 
&OBST ID='Podłoga', XB=203.8,227.0,-51.2,-22.4,-0.2,-0.2, SURF_ID='CONCRETE'/ 
&OBST ID='Podłoga', XB=199.0,227.0,-15.2,-6.8,-0.2,-0.2, SURF_ID='CONCRETE'/ 
&OBST ID='Podłoga', XB=203.8,227.0,-22.4,-15.2,-0.2,-0.2, SURF_ID='CONCRETE'/ 
&OBST ID='Podłoga', XB=203.8,227.0,-6.8,6.117329E-14,-0.2,-0.2, SURF_ID='CONCRETE'/ 
&OBST ID='Podłoga', XB=227.0,264.2,-80.0,-51.2,-0.2,-0.2, SURF_ID='CONCRETE'/ 
&OBST ID='Podłoga', XB=227.0,264.2,-51.2,-22.4,-0.2,-0.2, SURF_ID='CONCRETE'/ 
&OBST ID='Podłoga', XB=227.0,264.2,-22.4,6.117329E-14,-0.2,-0.2, SURF_ID='CONCRETE'/ 
&OBST ID='Podłoga', XB=243.0,247.8,6.117329E-14,4.8,-0.2,-0.2, SURF_ID='CONCRETE'/ 
&OBST ID='Podłoga', XB=253.8,262.6,6.117329E-14,4.8,-0.2,-0.2, SURF_ID='CONCRETE'/ 
&OBST ID='Podłoga', XB=264.2,289.8,-130.0,-80.0,-0.2,-0.2, SURF_ID='CONCRETE'/ 
&OBST ID='Podłoga', XB=273.4,281.8,-135.2,-130.0,-0.2,-0.2, SURF_ID='CONCRETE'/ 
&OBST ID='Podłoga', XB=289.8,315.4,-130.0,-80.0,-0.2,-0.2, SURF_ID='CONCRETE'/ 
&OBST ID='Podłoga', XB=296.6,305.0,-135.2,-130.0,-0.2,-0.2, SURF_ID='CONCRETE'/ 
&OBST ID='Podłoga', XB=314.6,315.4,-135.2,-130.0,-0.2,-0.2, SURF_ID='CONCRETE'/ 
&OBST ID='Podłoga', XB=315.4,323.0,-135.2,-130.0,-0.2,-0.2, SURF_ID='CONCRETE'/ 
&OBST ID='Podłoga', XB=315.4,335.8,-130.0,-91.2,-0.2,-0.2, SURF_ID='CONCRETE'/ 
&OBST ID='Podłoga', XB=315.4,335.8,-82.8,-80.0,-0.2,-0.2, SURF_ID='CONCRETE'/ 
&OBST ID='Podłoga', XB=315.4,341.0,-91.2,-82.8,-0.2,-0.2, SURF_ID='CONCRETE'/ 
&OBST ID='Podłoga', XB=264.2,273.8,-80.0,-65.6,-0.2,-2.775558E-17, SURF_ID='CONCRETE'/ 
&OBST ID='Podłoga', XB=264.2,273.8,-65.6,-51.2,-0.2,-2.775558E-17, SURF_ID='CONCRETE'/ 
&OBST ID='Podłoga', XB=264.2,273.8,-51.2,-36.8,-0.2,-2.775558E-17, SURF_ID='CONCRETE'/ 
&OBST ID='Podłoga', XB=264.2,273.8,-36.8,-22.4,-0.2,-2.775558E-17, SURF_ID='CONCRETE'/ 
&OBST ID='Podłoga', XB=264.2,273.8,-22.4,-8.0,-0.2,-2.775558E-17, SURF_ID='CONCRETE'/ 
&OBST ID='Podłoga', XB=264.2,273.8,-8.0,5.981327E-13,-0.2,-2.775558E-17, SURF_ID='CONCRETE'/ 
&OBST ID='Podłoga', XB=270.0,273.8,5.981327E-13,5.0,-0.2,-2.775558E-17, SURF_ID='CONCRETE'/ 
&OBST ID='Podłoga', XB=273.8,283.4,-80.0,-65.6,-0.2,-2.775558E-17, SURF_ID='CONCRETE'/ 
&OBST ID='Podłoga', XB=273.8,283.4,-65.6,-51.2,-0.2,-2.775558E-17, SURF_ID='CONCRETE'/ 
&OBST ID='Podłoga', XB=273.8,283.4,-51.2,-36.8,-0.2,-2.775558E-17, SURF_ID='CONCRETE'/ 
&OBST ID='Podłoga', XB=273.8,283.4,-36.8,-22.4,-0.2,-2.775558E-17, SURF_ID='CONCRETE'/ 
&OBST ID='Podłoga', XB=273.8,283.4,-22.4,-8.0,-0.2,-2.775558E-17, SURF_ID='CONCRETE'/ 
&OBST ID='Podłoga', XB=273.8,278.4,5.981327E-13,5.0,-0.2,-2.775558E-17, SURF_ID='CONCRETE'/ 
&OBST ID='Podłoga', XB=273.8,283.4,-8.0,5.981327E-13,-0.2,-2.775558E-17, SURF_ID='CONCRETE'/ 
&OBST ID='Podłoga', XB=283.4,293.0,-80.0,-65.6,-0.2,-2.775558E-17, SURF_ID='CONCRETE'/ 
&OBST ID='Podłoga', XB=283.4,293.0,-65.6,-51.2,-0.2,-2.775558E-17, SURF_ID='CONCRETE'/ 
&OBST ID='Podłoga', XB=283.4,293.0,-51.2,-36.8,-0.2,-2.775558E-17, SURF_ID='CONCRETE'/ 
&OBST ID='Podłoga', XB=283.4,293.0,-36.8,-22.4,-0.2,-2.775558E-17, SURF_ID='CONCRETE'/ 
&OBST ID='Podłoga', XB=283.4,293.0,-22.4,-8.0,-0.2,-2.775558E-17, SURF_ID='CONCRETE'/ 
&OBST ID='Podłoga', XB=283.4,293.0,-8.0,5.981327E-13,-0.2,-2.775558E-17, SURF_ID='CONCRETE'/ 
&OBST ID='Podłoga', XB=293.0,302.6,-80.0,-65.6,-0.2,-2.775558E-17, SURF_ID='CONCRETE'/ 
&OBST ID='Podłoga', XB=293.0,302.6,-65.6,-51.2,-0.2,-2.775558E-17, SURF_ID='CONCRETE'/ 
&OBST ID='Podłoga', XB=293.0,302.6,-51.2,-36.8,-0.2,-2.775558E-17, SURF_ID='CONCRETE'/ 
&OBST ID='Podłoga', XB=293.0,302.6,-36.8,-22.4,-0.2,-2.775558E-17, SURF_ID='CONCRETE'/ 
&OBST ID='Podłoga', XB=293.0,302.6,-22.4,-8.0,-0.2,-2.775558E-17, SURF_ID='CONCRETE'/ 
&OBST ID='Podłoga', XB=293.0,302.6,-8.0,5.981327E-13,-0.2,-2.775558E-17, SURF_ID='CONCRETE'/ 
&OBST ID='Podłoga', XB=302.6,312.2,-80.0,-65.6,-0.2,-2.775558E-17, SURF_ID='CONCRETE'/ 
&OBST ID='Podłoga', XB=302.6,312.2,-65.6,-51.2,-0.2,-2.775558E-17, SURF_ID='CONCRETE'/ 
&OBST ID='Podłoga', XB=302.6,312.2,-51.2,-36.8,-0.2,-2.775558E-17, SURF_ID='CONCRETE'/ 